models/feeders/OpenDSS/EPRI/K1/services.dss
New line.res_srv_10559391-S-A bus1=sec_10559391.1 bus2=ld_10559391.1 linecode=1/0_TRIPLEX_1PH phases=1 length=100 units=ft
New line.res_srv_10558483-S-B bus1=sec_10558483.2 bus2=ld_10558483.2 linecode=1/0_TRIPLEX_1PH phases=1 length=100 units=ft
New line.res_srv_34092313-S-C bus1=sec_34092313.3 bus2=ld_34092313.3 linecode=1/0_TRIPLEX_1PH phases=1 length=100 units=ft
New line.res_srv_34085491-S-B bus1=sec_34085491.2 bus2=ld_34085491.2 linecode=1/0_TRIPLEX_1PH phases=1 length=100 units=ft
New line.res_srv_34054972-S-C bus1=sec_34054972.3 bus2=ld_34054972.3 linecode=1/0_TRIPLEX_1PH phases=1 length=100 units=ft
New line.res_srv_10559275-S-A bus1=sec_10559275.1 bus2=ld_10559275.1 linecode=1/0_TRIPLEX_1PH phases=1 length=100 units=ft
New line.res_srv_34085468-S-C bus1=sec_34085468.3 bus2=ld_34085468.3 linecode=1/0_TRIPLEX_1PH phases=1 length=100 units=ft
New line.res_srv_10549020-S-C bus1=sec_10549020.3 bus2=ld_10549020.3 linecode=1/0_TRIPLEX_1PH phases=1 length=100 units=ft
New line.res_srv_10548907-S-B bus1=sec_10548907.2 bus2=ld_10548907.2 linecode=1/0_TRIPLEX_1PH phases=1 length=100 units=ft
New line.res_srv_10555985-S-C bus1=sec_10555985.3 bus2=ld_10555985.3 linecode=1/0_TRIPLEX_1PH phases=1 length=100 units=ft
New line.res_srv_10548988-S-B bus1=sec_10548988.2 bus2=ld_10548988.2 linecode=1/0_TRIPLEX_1PH phases=1 length=100 units=ft
New line.res_srv_10543795-S-C bus1=sec_10543795.3 bus2=ld_10543795.3 linecode=1/0_TRIPLEX_1PH phases=1 length=100 units=ft
New line.res_srv_34086801-S-C bus1=sec_34086801.3 bus2=ld_34086801.3 linecode=1/0_TRIPLEX_1PH phases=1 length=100 units=ft
New line.res_srv_34085286-S-B bus1=sec_34085286.2 bus2=ld_34085286.2 linecode=1/0_TRIPLEX_1PH phases=1 length=100 units=ft
New line.res_srv_10574854-S-C bus1=sec_10574854.3 bus2=ld_10574854.3 linecode=1/0_TRIPLEX_1PH phases=1 length=100 units=ft
New line.res_srv_10548982-S-A bus1=sec_10548982.1 bus2=ld_10548982.1 linecode=1/0_TRIPLEX_1PH phases=1 length=100 units=ft
New line.res_srv_34086794-S-B bus1=sec_34086794.2 bus2=ld_34086794.2 linecode=1/0_TRIPLEX_1PH phases=1 length=100 units=ft
New line.res_srv_34085048-S-C bus1=sec_34085048.3 bus2=ld_34085048.3 linecode=1/0_TRIPLEX_1PH phases=1 length=100 units=ft
New line.res_srv_20350796-S-B bus1=sec_20350796.2 bus2=ld_20350796.2 linecode=1/0_TRIPLEX_1PH phases=1 length=100 units=ft
New line.res_srv_10548968-S-A bus1=sec_10548968.1 bus2=ld_10548968.1 linecode=1/0_TRIPLEX_1PH phases=1 length=100 units=ft
New line.res_srv_10532911-S-C bus1=sec_10532911.3 bus2=ld_10532911.3 linecode=1/0_TRIPLEX_1PH phases=1 length=100 units=ft
New line.res_srv_34097398-S-C bus1=sec_34097398.3 bus2=ld_34097398.3 linecode=1/0_TRIPLEX_1PH phases=1 length=100 units=ft
New line.res_srv_34085042-S-A bus1=sec_34085042.1 bus2=ld_34085042.1 linecode=1/0_TRIPLEX_1PH phases=1 length=100 units=ft
New line.res_srv_20344333-S-A bus1=sec_20344333.1 bus2=ld_20344333.1 linecode=1/0_TRIPLEX_1PH phases=1 length=100 units=ft
New line.res_srv_10560618-S-C bus1=sec_10560618.3 bus2=ld_10560618.3 linecode=1/0_TRIPLEX_1PH phases=1 length=100 units=ft
New line.res_srv_10549285-S-B bus1=sec_10549285.2 bus2=ld_10549285.2 linecode=1/0_TRIPLEX_1PH phases=1 length=100 units=ft


New line.com_srv_10526890-S-A bus1=sec_10526890.1.2.3 bus2=ld_10526890.1.2.3 linecode=1/0_TRIPLEX_3PH phases=3 length=100 units=ft
New line.res_srv_34097392-S-C bus1=sec_34097392.3 bus2=ld_34097392.3 linecode=1/0_TRIPLEX_1PH phases=1 length=100 units=ft
New line.res_srv_34085036-S-A bus1=sec_34085036.1 bus2=ld_34085036.1 linecode=1/0_TRIPLEX_1PH phases=1 length=100 units=ft
New line.res_srv_20251419-S-C bus1=sec_20251419.3 bus2=ld_20251419.3 linecode=1/0_TRIPLEX_1PH phases=1 length=100 units=ft
New line.res_srv_10560337-S-B bus1=sec_10560337.2 bus2=ld_10560337.2 linecode=1/0_TRIPLEX_1PH phases=1 length=100 units=ft
New line.res_srv_10558551-S-A bus1=sec_10558551.1 bus2=ld_10558551.1 linecode=1/0_TRIPLEX_1PH phases=1 length=100 units=ft
New line.res_srv_10524061-S-C bus1=sec_10524061.3 bus2=ld_10524061.3 linecode=1/0_TRIPLEX_1PH phases=1 length=100 units=ft
New line.res_srv_34096115-S-B bus1=sec_34096115.2 bus2=ld_34096115.2 linecode=1/0_TRIPLEX_1PH phases=1 length=100 units=ft
New line.res_srv_34086318-S-B bus1=sec_34086318.2 bus2=ld_34086318.2 linecode=1/0_TRIPLEX_1PH phases=1 length=100 units=ft
New line.res_srv_34084954-S-B bus1=sec_34084954.2 bus2=ld_34084954.2 linecode=1/0_TRIPLEX_1PH phases=1 length=100 units=ft
New line.res_srv_10558545-S-B bus1=sec_10558545.2 bus2=ld_10558545.2 linecode=1/0_TRIPLEX_1PH phases=1 length=100 units=ft
New line.res_srv_10549263-S-A bus1=sec_10549263.1 bus2=ld_10549263.1 linecode=1/0_TRIPLEX_1PH phases=1 length=100 units=ft
New line.res_srv_34095665-S-B bus1=sec_34095665.2 bus2=ld_34095665.2 linecode=1/0_TRIPLEX_1PH phases=1 length=100 units=ft
New line.res_srv_34086306-S-A bus1=sec_34086306.1 bus2=ld_34086306.1 linecode=1/0_TRIPLEX_1PH phases=1 length=100 units=ft
New line.res_srv_34084664-S-B bus1=sec_34084664.2 bus2=ld_34084664.2 linecode=1/0_TRIPLEX_1PH phases=1 length=100 units=ft
New line.res_srv_20014991-S-C bus1=sec_20014991.3 bus2=ld_20014991.3 linecode=1/0_TRIPLEX_1PH phases=1 length=100 units=ft
New line.res_srv_10559587-S-C bus1=sec_10559587.3 bus2=ld_10559587.3 linecode=1/0_TRIPLEX_1PH phases=1 length=100 units=ft
New line.res_srv_10549255-S-C bus1=sec_10549255.3 bus2=ld_10549255.3 linecode=1/0_TRIPLEX_1PH phases=1 length=100 units=ft
New line.res_srv_10548940-S-B bus1=sec_10548940.2 bus2=ld_10548940.2 linecode=1/0_TRIPLEX_1PH phases=1 length=100 units=ft
New line.res_srv_34095659-S-C bus1=sec_34095659.3 bus2=ld_34095659.3 linecode=1/0_TRIPLEX_1PH phases=1 length=100 units=ft
New line.res_srv_34086300-S-C bus1=sec_34086300.3 bus2=ld_34086300.3 linecode=1/0_TRIPLEX_1PH phases=1 length=100 units=ft
New line.res_srv_10580378-S-B bus1=sec_10580378.2 bus2=ld_10580378.2 linecode=1/0_TRIPLEX_1PH phases=1 length=100 units=ft
New line.res_srv_10549248-S-C bus1=sec_10549248.3 bus2=ld_10549248.3 linecode=1/0_TRIPLEX_1PH phases=1 length=100 units=ft


New line.com_srv_10548933-S-A bus1=sec_10548933.1.2.3 bus2=ld_10548933.1.2.3 linecode=1/0_TRIPLEX_3PH phases=3 length=100 units=ft
New line.res_srv_34086016-S-B bus1=sec_34086016.2 bus2=ld_34086016.2 linecode=1/0_TRIPLEX_1PH phases=1 length=100 units=ft
New line.res_srv_34057797-S-C bus1=sec_34057797.3 bus2=ld_34057797.3 linecode=1/0_TRIPLEX_1PH phases=1 length=100 units=ft
New line.res_srv_10579978-S-C bus1=sec_10579978.3 bus2=ld_10579978.3 linecode=1/0_TRIPLEX_1PH phases=1 length=100 units=ft
New line.res_srv_10549241-S-B bus1=sec_10549241.2 bus2=ld_10549241.2 linecode=1/0_TRIPLEX_1PH phases=1 length=100 units=ft
New line.res_srv_10548927-S-C bus1=sec_10548927.3 bus2=ld_10548927.3 linecode=1/0_TRIPLEX_1PH phases=1 length=100 units=ft
New line.res_srv_34095590-S-A bus1=sec_34095590.1 bus2=ld_34095590.1 linecode=1/0_TRIPLEX_1PH phases=1 length=100 units=ft
New line.res_srv_34054979-S-A bus1=sec_34054979.1 bus2=ld_34054979.1 linecode=1/0_TRIPLEX_1PH phases=1 length=100 units=ft
New line.res_srv_10559392-S-A bus1=sec_10559392.1 bus2=ld_10559392.1 linecode=1/0_TRIPLEX_1PH phases=1 length=100 units=ft
New line.res_srv_34095281-S-A bus1=sec_34095281.1 bus2=ld_34095281.1 linecode=1/0_TRIPLEX_1PH phases=1 length=100 units=ft
New line.res_srv_10579833-S-B bus1=sec_10579833.2 bus2=ld_10579833.2 linecode=1/0_TRIPLEX_1PH phases=1 length=100 units=ft
New line.res_srv_10559385-S-A bus1=sec_10559385.1 bus2=ld_10559385.1 linecode=1/0_TRIPLEX_1PH phases=1 length=100 units=ft


New line.com_srv_34090007-S-A bus1=sec_34090007.1.2.3 bus2=ld_34090007.1.2.3 linecode=1/0_TRIPLEX_3PH phases=3 length=100 units=ft
New line.res_srv_34085401-S-B bus1=sec_34085401.2 bus2=ld_34085401.2 linecode=1/0_TRIPLEX_1PH phases=1 length=100 units=ft
New line.res_srv_34054927-S-A bus1=sec_34054927.1 bus2=ld_34054927.1 linecode=1/0_TRIPLEX_1PH phases=1 length=100 units=ft
New line.res_srv_10556735-S-A bus1=sec_10556735.1 bus2=ld_10556735.1 linecode=1/0_TRIPLEX_1PH phases=1 length=100 units=ft


New line.com_srv_10548901-S-A bus1=sec_10548901.1.2.3 bus2=ld_10548901.1.2.3 linecode=1/0_TRIPLEX_3PH phases=3 length=100 units=ft
New line.res_srv_34087256-S-B bus1=sec_34087256.2 bus2=ld_34087256.2 linecode=1/0_TRIPLEX_1PH phases=1 length=100 units=ft
New line.res_srv_20437314-S-A bus1=sec_20437314.1 bus2=ld_20437314.1 linecode=1/0_TRIPLEX_1PH phases=1 length=100 units=ft
New line.res_srv_10579185-S-A bus1=sec_10579185.1 bus2=ld_10579185.1 linecode=1/0_TRIPLEX_1PH phases=1 length=100 units=ft
New line.res_srv_10548989-S-B bus1=sec_10548989.2 bus2=ld_10548989.2 linecode=1/0_TRIPLEX_1PH phases=1 length=100 units=ft
New line.res_srv_34086802-S-C bus1=sec_34086802.3 bus2=ld_34086802.3 linecode=1/0_TRIPLEX_1PH phases=1 length=100 units=ft
New line.res_srv_10549309-S-B bus1=sec_10549309.2 bus2=ld_10549309.2 linecode=1/0_TRIPLEX_1PH phases=1 length=100 units=ft
New line.res_srv_10548983-S-A bus1=sec_10548983.1 bus2=ld_10548983.1 linecode=1/0_TRIPLEX_1PH phases=1 length=100 units=ft
New line.res_srv_10541616-S-C bus1=sec_10541616.3 bus2=ld_10541616.3 linecode=1/0_TRIPLEX_1PH phases=1 length=100 units=ft
New line.res_srv_40154810-S-A bus1=sec_40154810.1 bus2=ld_40154810.1 linecode=1/0_TRIPLEX_1PH phases=1 length=100 units=ft
New line.res_srv_34086796-S-B bus1=sec_34086796.2 bus2=ld_34086796.2 linecode=1/0_TRIPLEX_1PH phases=1 length=100 units=ft
New line.res_srv_34085260-S-B bus1=sec_34085260.2 bus2=ld_34085260.2 linecode=1/0_TRIPLEX_1PH phases=1 length=100 units=ft
New line.res_srv_10558565-S-C bus1=sec_10558565.3 bus2=ld_10558565.3 linecode=1/0_TRIPLEX_1PH phases=1 length=100 units=ft
New line.res_srv_10549286-S-B bus1=sec_10549286.2 bus2=ld_10549286.2 linecode=1/0_TRIPLEX_1PH phases=1 length=100 units=ft
New line.res_srv_10548961-S-B bus1=sec_10548961.2 bus2=ld_10548961.2 linecode=1/0_TRIPLEX_1PH phases=1 length=100 units=ft
New line.res_srv_10528321-S-B bus1=sec_10528321.2 bus2=ld_10528321.2 linecode=1/0_TRIPLEX_1PH phases=1 length=100 units=ft
New line.res_srv_34097393-S-C bus1=sec_34097393.3 bus2=ld_34097393.3 linecode=1/0_TRIPLEX_1PH phases=1 length=100 units=ft
New line.res_srv_34086383-S-C bus1=sec_34086383.3 bus2=ld_34086383.3 linecode=1/0_TRIPLEX_1PH phases=1 length=100 units=ft
New line.res_srv_10560338-S-B bus1=sec_10560338.2 bus2=ld_10560338.2 linecode=1/0_TRIPLEX_1PH phases=1 length=100 units=ft
New line.res_srv_10549276-S-A bus1=sec_10549276.1 bus2=ld_10549276.1 linecode=1/0_TRIPLEX_1PH phases=1 length=100 units=ft
New line.res_srv_10548953-S-A bus1=sec_10548953.1 bus2=ld_10548953.1 linecode=1/0_TRIPLEX_1PH phases=1 length=100 units=ft
New line.res_srv_34096116-S-B bus1=sec_34096116.2 bus2=ld_34096116.2 linecode=1/0_TRIPLEX_1PH phases=1 length=100 units=ft
New line.res_srv_10559735-S-C bus1=sec_10559735.3 bus2=ld_10559735.3 linecode=1/0_TRIPLEX_1PH phases=1 length=100 units=ft
New line.res_srv_10548947-S-A bus1=sec_10548947.1 bus2=ld_10548947.1 linecode=1/0_TRIPLEX_1PH phases=1 length=100 units=ft
New line.res_srv_34086307-S-A bus1=sec_34086307.1 bus2=ld_34086307.1 linecode=1/0_TRIPLEX_1PH phases=1 length=100 units=ft
New line.res_srv_34084665-S-B bus1=sec_34084665.2 bus2=ld_34084665.2 linecode=1/0_TRIPLEX_1PH phases=1 length=100 units=ft
New line.res_srv_20014992-S-A bus1=sec_20014992.1 bus2=ld_20014992.1 linecode=1/0_TRIPLEX_1PH phases=1 length=100 units=ft
New line.res_srv_10559588-S-C bus1=sec_10559588.3 bus2=ld_10559588.3 linecode=1/0_TRIPLEX_1PH phases=1 length=100 units=ft
New line.res_srv_10549258-S-C bus1=sec_10549258.3 bus2=ld_10549258.3 linecode=1/0_TRIPLEX_1PH phases=1 length=100 units=ft
New line.res_srv_10548941-S-C bus1=sec_10548941.3 bus2=ld_10548941.3 linecode=1/0_TRIPLEX_1PH phases=1 length=100 units=ft
New line.res_srv_34095660-S-C bus1=sec_34095660.3 bus2=ld_34095660.3 linecode=1/0_TRIPLEX_1PH phases=1 length=100 units=ft
New line.res_srv_34086301-S-C bus1=sec_34086301.3 bus2=ld_34086301.3 linecode=1/0_TRIPLEX_1PH phases=1 length=100 units=ft
New line.res_srv_34084602-S-C bus1=sec_34084602.3 bus2=ld_34084602.3 linecode=1/0_TRIPLEX_1PH phases=1 length=100 units=ft
New line.res_srv_34095650-S-B bus1=sec_34095650.2 bus2=ld_34095650.2 linecode=1/0_TRIPLEX_1PH phases=1 length=100 units=ft
New line.res_srv_34057798-S-B bus1=sec_34057798.2 bus2=ld_34057798.2 linecode=1/0_TRIPLEX_1PH phases=1 length=100 units=ft


New line.com_srv_10580150-S-A bus1=sec_10580150.1.2.3 bus2=ld_10580150.1.2.3 linecode=unknown_750 phases=3 length=100 units=ft
New line.res_srv_10559407-S-A bus1=sec_10559407.1 bus2=ld_10559407.1 linecode=1/0_TRIPLEX_1PH phases=1 length=100 units=ft
New line.res_srv_34095591-S-C bus1=sec_34095591.3 bus2=ld_34095591.3 linecode=1/0_TRIPLEX_1PH phases=1 length=100 units=ft
New line.res_srv_34054980-S-A bus1=sec_34054980.1 bus2=ld_34054980.1 linecode=1/0_TRIPLEX_1PH phases=1 length=100 units=ft
New line.res_srv_10579845-S-C bus1=sec_10579845.3 bus2=ld_10579845.3 linecode=1/0_TRIPLEX_1PH phases=1 length=100 units=ft
New line.res_srv_10559393-S-A bus1=sec_10559393.1 bus2=ld_10559393.1 linecode=1/0_TRIPLEX_1PH phases=1 length=100 units=ft
New line.res_srv_34085493-S-A bus1=sec_34085493.1 bus2=ld_34085493.1 linecode=1/0_TRIPLEX_1PH phases=1 length=100 units=ft
New line.res_srv_34054974-S-B bus1=sec_34054974.2 bus2=ld_34054974.2 linecode=1/0_TRIPLEX_1PH phases=1 length=100 units=ft
New line.res_srv_10559386-S-A bus1=sec_10559386.1 bus2=ld_10559386.1 linecode=1/0_TRIPLEX_1PH phases=1 length=100 units=ft
New line.res_srv_10558477-S-C bus1=sec_10558477.3 bus2=ld_10558477.3 linecode=1/0_TRIPLEX_1PH phases=1 length=100 units=ft
New line.res_srv_10549223-S-B bus1=sec_10549223.2 bus2=ld_10549223.2 linecode=1/0_TRIPLEX_1PH phases=1 length=100 units=ft
New line.res_srv_10559057-S-A bus1=sec_10559057.1 bus2=ld_10559057.1 linecode=1/0_TRIPLEX_1PH phases=1 length=100 units=ft
New line.res_srv_10558215-S-C bus1=sec_10558215.3 bus2=ld_10558215.3 linecode=1/0_TRIPLEX_1PH phases=1 length=100 units=ft
New line.res_srv_34085402-S-B bus1=sec_34085402.2 bus2=ld_34085402.2 linecode=1/0_TRIPLEX_1PH phases=1 length=100 units=ft
New line.res_srv_34054962-S-A bus1=sec_34054962.1 bus2=ld_34054962.1 linecode=1/0_TRIPLEX_1PH phases=1 length=100 units=ft
New line.res_srv_10556736-S-A bus1=sec_10556736.1 bus2=ld_10556736.1 linecode=1/0_TRIPLEX_1PH phases=1 length=100 units=ft
New line.res_srv_10549013-S-B bus1=sec_10549013.2 bus2=ld_10549013.2 linecode=1/0_TRIPLEX_1PH phases=1 length=100 units=ft
New line.res_srv_20456673-S-C bus1=sec_20456673.3 bus2=ld_20456673.3 linecode=1/0_TRIPLEX_1PH phases=1 length=100 units=ft
New line.res_srv_10579196-S-A bus1=sec_10579196.1 bus2=ld_10579196.1 linecode=1/0_TRIPLEX_1PH phases=1 length=100 units=ft
New line.res_srv_10558579-S-C bus1=sec_10558579.3 bus2=ld_10558579.3 linecode=1/0_TRIPLEX_1PH phases=1 length=100 units=ft
New line.res_srv_10548992-S-B bus1=sec_10548992.2 bus2=ld_10548992.2 linecode=1/0_TRIPLEX_1PH phases=1 length=100 units=ft
New line.res_srv_10545431-S-A bus1=sec_10545431.1 bus2=ld_10545431.1 linecode=1/0_TRIPLEX_1PH phases=1 length=100 units=ft
New line.res_srv_34086805-S-C bus1=sec_34086805.3 bus2=ld_34086805.3 linecode=1/0_TRIPLEX_1PH phases=1 length=100 units=ft
New line.res_srv_34085312-S-A bus1=sec_34085312.1 bus2=ld_34085312.1 linecode=1/0_TRIPLEX_1PH phases=1 length=100 units=ft
New line.res_srv_20409718-S-C bus1=sec_20409718.3 bus2=ld_20409718.3 linecode=1/0_TRIPLEX_1PH phases=1 length=100 units=ft
New line.res_srv_10549310-S-B bus1=sec_10549310.2 bus2=ld_10549310.2 linecode=1/0_TRIPLEX_1PH phases=1 length=100 units=ft
New line.res_srv_34086797-S-B bus1=sec_34086797.2 bus2=ld_34086797.2 linecode=1/0_TRIPLEX_1PH phases=1 length=100 units=ft
New line.res_srv_10573495-S-C bus1=sec_10573495.3 bus2=ld_10573495.3 linecode=1/0_TRIPLEX_1PH phases=1 length=100 units=ft
New line.res_srv_10549293-S-A bus1=sec_10549293.1 bus2=ld_10549293.1 linecode=1/0_TRIPLEX_1PH phases=1 length=100 units=ft
New line.res_srv_10548977-S-A bus1=sec_10548977.1 bus2=ld_10548977.1 linecode=1/0_TRIPLEX_1PH phases=1 length=100 units=ft
New line.res_srv_34085044-S-B bus1=sec_34085044.2 bus2=ld_34085044.2 linecode=1/0_TRIPLEX_1PH phases=1 length=100 units=ft
New line.res_srv_10571603-S-A bus1=sec_10571603.1 bus2=ld_10571603.1 linecode=1/0_TRIPLEX_1PH phases=1 length=100 units=ft
New line.res_srv_10549287-S-B bus1=sec_10549287.2 bus2=ld_10549287.2 linecode=1/0_TRIPLEX_1PH phases=1 length=100 units=ft
New line.res_srv_10548962-S-B bus1=sec_10548962.2 bus2=ld_10548962.2 linecode=1/0_TRIPLEX_1PH phases=1 length=100 units=ft
New line.res_srv_10529606-S-A bus1=sec_10529606.1 bus2=ld_10529606.1 linecode=1/0_TRIPLEX_1PH phases=1 length=100 units=ft
New line.res_srv_34097394-S-A bus1=sec_34097394.1 bus2=ld_34097394.1 linecode=1/0_TRIPLEX_1PH phases=1 length=100 units=ft
New line.res_srv_34086384-S-C bus1=sec_34086384.3 bus2=ld_34086384.3 linecode=1/0_TRIPLEX_1PH phases=1 length=100 units=ft
New line.res_srv_10560401-S-B bus1=sec_10560401.2 bus2=ld_10560401.2 linecode=1/0_TRIPLEX_1PH phases=1 length=100 units=ft
New line.res_srv_10558553-S-A bus1=sec_10558553.1 bus2=ld_10558553.1 linecode=1/0_TRIPLEX_1PH phases=1 length=100 units=ft
New line.res_srv_10549278-S-A bus1=sec_10549278.1 bus2=ld_10549278.1 linecode=1/0_TRIPLEX_1PH phases=1 length=100 units=ft
New line.res_srv_10548954-S-C bus1=sec_10548954.3 bus2=ld_10548954.3 linecode=1/0_TRIPLEX_1PH phases=1 length=100 units=ft
New line.res_srv_34084956-S-B bus1=sec_34084956.2 bus2=ld_34084956.2 linecode=1/0_TRIPLEX_1PH phases=1 length=100 units=ft
New line.res_srv_10559783-S-B bus1=sec_10559783.2 bus2=ld_10559783.2 linecode=1/0_TRIPLEX_1PH phases=1 length=100 units=ft
New line.res_srv_10558547-S-C bus1=sec_10558547.3 bus2=ld_10558547.3 linecode=1/0_TRIPLEX_1PH phases=1 length=100 units=ft
New line.res_srv_10548948-S-B bus1=sec_10548948.2 bus2=ld_10548948.2 linecode=1/0_TRIPLEX_1PH phases=1 length=100 units=ft
New line.res_srv_10522508-S-B bus1=sec_10522508.2 bus2=ld_10522508.2 linecode=1/0_TRIPLEX_1PH phases=1 length=100 units=ft
New line.res_srv_34095667-S-C bus1=sec_34095667.3 bus2=ld_34095667.3 linecode=1/0_TRIPLEX_1PH phases=1 length=100 units=ft
New line.res_srv_34084666-S-B bus1=sec_34084666.2 bus2=ld_34084666.2 linecode=1/0_TRIPLEX_1PH phases=1 length=100 units=ft
New line.res_srv_10559589-S-C bus1=sec_10559589.3 bus2=ld_10559589.3 linecode=1/0_TRIPLEX_1PH phases=1 length=100 units=ft
New line.res_srv_10549259-S-C bus1=sec_10549259.3 bus2=ld_10549259.3 linecode=1/0_TRIPLEX_1PH phases=1 length=100 units=ft
New line.res_srv_34084616-S-A bus1=sec_34084616.1 bus2=ld_34084616.1 linecode=1/0_TRIPLEX_1PH phases=1 length=100 units=ft
New line.res_srv_10559558-S-A bus1=sec_10559558.1 bus2=ld_10559558.1 linecode=1/0_TRIPLEX_1PH phases=1 length=100 units=ft
New line.res_srv_10549250-S-A bus1=sec_10549250.1 bus2=ld_10549250.1 linecode=1/0_TRIPLEX_1PH phases=1 length=100 units=ft
New line.com_srv_34095651-S-A bus1=sec_34095651.1 bus2=ld_34095651.1 linecode=1/0_TRIPLEX_1PH phases=1 length=100 units=ft
New line.res_srv_10559451-S-A bus1=sec_10559451.1 bus2=ld_10559451.1 linecode=1/0_TRIPLEX_1PH phases=1 length=100 units=ft
New line.res_srv_34054992-S-A bus1=sec_34054992.1 bus2=ld_34054992.1 linecode=1/0_TRIPLEX_1PH phases=1 length=100 units=ft
New line.res_srv_10579847-S-B bus1=sec_10579847.2 bus2=ld_10579847.2 linecode=1/0_TRIPLEX_1PH phases=1 length=100 units=ft
New line.res_srv_10559394-S-A bus1=sec_10559394.1 bus2=ld_10559394.1 linecode=1/0_TRIPLEX_1PH phases=1 length=100 units=ft
New line.res_srv_34095580-S-B bus1=sec_34095580.2 bus2=ld_34095580.2 linecode=1/0_TRIPLEX_1PH phases=1 length=100 units=ft
New line.res_srv_34085951-S-C bus1=sec_34085951.3 bus2=ld_34085951.3 linecode=1/0_TRIPLEX_1PH phases=1 length=100 units=ft
New line.res_srv_34054975-S-B bus1=sec_34054975.2 bus2=ld_34054975.2 linecode=1/0_TRIPLEX_1PH phases=1 length=100 units=ft
New line.res_srv_10579840-S-C bus1=sec_10579840.3 bus2=ld_10579840.3 linecode=1/0_TRIPLEX_1PH phases=1 length=100 units=ft
New line.res_srv_10559387-S-A bus1=sec_10559387.1 bus2=ld_10559387.1 linecode=1/0_TRIPLEX_1PH phases=1 length=100 units=ft
New line.res_srv_34092154-S-A bus1=sec_34092154.1 bus2=ld_34092154.1 linecode=1/0_TRIPLEX_1PH phases=1 length=100 units=ft
New line.res_srv_10559090-S-A bus1=sec_10559090.1 bus2=ld_10559090.1 linecode=1/0_TRIPLEX_1PH phases=1 length=100 units=ft
New line.res_srv_10548910-S-B bus1=sec_10548910.2 bus2=ld_10548910.2 linecode=1/0_TRIPLEX_1PH phases=1 length=100 units=ft
New line.res_srv_34085442-S-A bus1=sec_34085442.1 bus2=ld_34085442.1 linecode=1/0_TRIPLEX_1PH phases=1 length=100 units=ft
New line.res_srv_10579829-S-C bus1=sec_10579829.3 bus2=ld_10579829.3 linecode=1/0_TRIPLEX_1PH phases=1 length=100 units=ft
New line.res_srv_10558586-S-A bus1=sec_10558586.1 bus2=ld_10558586.1 linecode=1/0_TRIPLEX_1PH phases=1 length=100 units=ft
New line.res_srv_10549015-S-B bus1=sec_10549015.2 bus2=ld_10549015.2 linecode=1/0_TRIPLEX_1PH phases=1 length=100 units=ft
New line.res_srv_34085352-S-B bus1=sec_34085352.2 bus2=ld_34085352.2 linecode=1/0_TRIPLEX_1PH phases=1 length=100 units=ft
New line.res_srv_20456674-S-C bus1=sec_20456674.3 bus2=ld_20456674.3 linecode=1/0_TRIPLEX_1PH phases=1 length=100 units=ft
New line.res_srv_10579231-S-A bus1=sec_10579231.1 bus2=ld_10579231.1 linecode=1/0_TRIPLEX_1PH phases=1 length=100 units=ft
New line.res_srv_10558580-S-C bus1=sec_10558580.3 bus2=ld_10558580.3 linecode=1/0_TRIPLEX_1PH phases=1 length=100 units=ft
New line.res_srv_10552942-S-A bus1=sec_10552942.1 bus2=ld_10552942.1 linecode=1/0_TRIPLEX_1PH phases=1 length=100 units=ft
New line.res_srv_10545502-S-A bus1=sec_10545502.1 bus2=ld_10545502.1 linecode=1/0_TRIPLEX_1PH phases=1 length=100 units=ft
New line.res_srv_34086806-S-C bus1=sec_34086806.3 bus2=ld_34086806.3 linecode=1/0_TRIPLEX_1PH phases=1 length=100 units=ft
New line.res_srv_10558573-S-C bus1=sec_10558573.3 bus2=ld_10558573.3 linecode=1/0_TRIPLEX_1PH phases=1 length=100 units=ft
New line.res_srv_10548985-S-A bus1=sec_10548985.1 bus2=ld_10548985.1 linecode=1/0_TRIPLEX_1PH phases=1 length=100 units=ft
New line.res_srv_40156536-S-A bus1=sec_40156536.1 bus2=ld_40156536.1 linecode=1/0_TRIPLEX_1PH phases=1 length=100 units=ft
New line.res_srv_34085262-S-B bus1=sec_34085262.2 bus2=ld_34085262.2 linecode=1/0_TRIPLEX_1PH phases=1 length=100 units=ft
New line.res_srv_10549294-S-C bus1=sec_10549294.3 bus2=ld_10549294.3 linecode=1/0_TRIPLEX_1PH phases=1 length=100 units=ft
New line.com_srv_10548979-S-A bus1=sec_10548979.1 bus2=ld_10548979.1 linecode=1/0_TRIPLEX_1PH phases=1 length=100 units=ft


New line.com_srv_10540312-S-A bus1=sec_10540312.1.2.3 bus2=ld_10540312.1.2.3 linecode=unknown_750 phases=3 length=100 units=ft
New line.res_srv_34086410-S-B bus1=sec_34086410.2 bus2=ld_34086410.2 linecode=1/0_TRIPLEX_1PH phases=1 length=100 units=ft
New line.res_srv_34085045-S-B bus1=sec_34085045.2 bus2=ld_34085045.2 linecode=1/0_TRIPLEX_1PH phases=1 length=100 units=ft
New line.res_srv_10529607-S-A bus1=sec_10529607.1 bus2=ld_10529607.1 linecode=1/0_TRIPLEX_1PH phases=1 length=100 units=ft
New line.res_srv_34097395-S-A bus1=sec_34097395.1 bus2=ld_34097395.1 linecode=1/0_TRIPLEX_1PH phases=1 length=100 units=ft
New line.res_srv_34086400-S-C bus1=sec_34086400.3 bus2=ld_34086400.3 linecode=1/0_TRIPLEX_1PH phases=1 length=100 units=ft
New line.res_srv_10560402-S-B bus1=sec_10560402.2 bus2=ld_10560402.2 linecode=1/0_TRIPLEX_1PH phases=1 length=100 units=ft
New line.res_srv_34096668-S-A bus1=sec_34096668.1 bus2=ld_34096668.1 linecode=1/0_TRIPLEX_1PH phases=1 length=100 units=ft
New line.res_srv_34084957-S-A bus1=sec_34084957.1 bus2=ld_34084957.1 linecode=1/0_TRIPLEX_1PH phases=1 length=100 units=ft


New line.com_srv_20114730-S-C bus1=sec_20114730.1.2.3 bus2=ld_20114730.1.2.3 linecode=1/0_TRIPLEX_3PH phases=3 length=100 units=ft
New line.res_srv_10559784-S-B bus1=sec_10559784.2 bus2=ld_10559784.2 linecode=1/0_TRIPLEX_1PH phases=1 length=100 units=ft
New line.res_srv_10549266-S-B bus1=sec_10549266.2 bus2=ld_10549266.2 linecode=1/0_TRIPLEX_1PH phases=1 length=100 units=ft
New line.res_srv_34095668-S-B bus1=sec_34095668.2 bus2=ld_34095668.2 linecode=1/0_TRIPLEX_1PH phases=1 length=100 units=ft
New line.res_srv_34086309-S-A bus1=sec_34086309.1 bus2=ld_34086309.1 linecode=1/0_TRIPLEX_1PH phases=1 length=100 units=ft
New line.res_srv_34086303-S-C bus1=sec_34086303.3 bus2=ld_34086303.3 linecode=1/0_TRIPLEX_1PH phases=1 length=100 units=ft
New line.res_srv_34084661-S-B bus1=sec_34084661.2 bus2=ld_34084661.2 linecode=1/0_TRIPLEX_1PH phases=1 length=100 units=ft
New line.res_srv_34095654-S-B bus1=sec_34095654.2 bus2=ld_34095654.2 linecode=1/0_TRIPLEX_1PH phases=1 length=100 units=ft
New line.res_srv_34086019-S-A bus1=sec_34086019.1 bus2=ld_34086019.1 linecode=1/0_TRIPLEX_1PH phases=1 length=100 units=ft
New line.com_srv_34084591-S-B bus1=sec_34084591.2 bus2=ld_34084591.2 linecode=1/0_TRIPLEX_1PH phases=1 length=100 units=ft
New line.res_srv_10559487-S-A bus1=sec_10559487.1 bus2=ld_10559487.1 linecode=1/0_TRIPLEX_1PH phases=1 length=100 units=ft
New line.res_srv_10549245-S-B bus1=sec_10549245.2 bus2=ld_10549245.2 linecode=1/0_TRIPLEX_1PH phases=1 length=100 units=ft
New line.res_srv_34095643-S-A bus1=sec_34095643.1 bus2=ld_34095643.1 linecode=1/0_TRIPLEX_1PH phases=1 length=100 units=ft
New line.res_srv_34055522-S-A bus1=sec_34055522.1 bus2=ld_34055522.1 linecode=1/0_TRIPLEX_1PH phases=1 length=100 units=ft
New line.res_srv_10559396-S-A bus1=sec_10559396.1 bus2=ld_10559396.1 linecode=1/0_TRIPLEX_1PH phases=1 length=100 units=ft


New line.com_srv_10558507-S-A bus1=sec_10558507.1.2.3 bus2=ld_10558507.1.2.3 linecode=1/0_TRIPLEX_3PH phases=3 length=100 units=ft
New line.res_srv_10549232-S-B bus1=sec_10549232.2 bus2=ld_10549232.2 linecode=1/0_TRIPLEX_1PH phases=1 length=100 units=ft
New line.res_srv_34095581-S-B bus1=sec_34095581.2 bus2=ld_34095581.2 linecode=1/0_TRIPLEX_1PH phases=1 length=100 units=ft
New line.res_srv_34085952-S-C bus1=sec_34085952.3 bus2=ld_34085952.3 linecode=1/0_TRIPLEX_1PH phases=1 length=100 units=ft
New line.res_srv_34054976-S-A bus1=sec_34054976.1 bus2=ld_34054976.1 linecode=1/0_TRIPLEX_1PH phases=1 length=100 units=ft
New line.res_srv_10559389-S-A bus1=sec_10559389.1 bus2=ld_10559389.1 linecode=1/0_TRIPLEX_1PH phases=1 length=100 units=ft
New line.res_srv_10558481-S-A bus1=sec_10558481.1 bus2=ld_10558481.1 linecode=1/0_TRIPLEX_1PH phases=1 length=100 units=ft
New line.res_srv_34092234-S-C bus1=sec_34092234.3 bus2=ld_34092234.3 linecode=1/0_TRIPLEX_1PH phases=1 length=100 units=ft
New line.res_srv_34085489-S-C bus1=sec_34085489.3 bus2=ld_34085489.3 linecode=1/0_TRIPLEX_1PH phases=1 length=100 units=ft
New line.res_srv_10579830-S-C bus1=sec_10579830.3 bus2=ld_10579830.3 linecode=1/0_TRIPLEX_1PH phases=1 length=100 units=ft
New line.res_srv_10558471-S-C bus1=sec_10558471.3 bus2=ld_10558471.3 linecode=1/0_TRIPLEX_1PH phases=1 length=100 units=ft
New line.res_srv_10548911-S-A bus1=sec_10548911.1 bus2=ld_10548911.1 linecode=1/0_TRIPLEX_1PH phases=1 length=100 units=ft
New line.res_srv_34090086-S-C bus1=sec_34090086.3 bus2=ld_34090086.3 linecode=1/0_TRIPLEX_1PH phases=1 length=100 units=ft
New line.res_srv_34090003-S-C bus1=sec_34090003.3 bus2=ld_34090003.3 linecode=1/0_TRIPLEX_1PH phases=1 length=100 units=ft
New line.res_srv_20494025-S-C bus1=sec_20494025.3 bus2=ld_20494025.3 linecode=1/0_TRIPLEX_1PH phases=1 length=100 units=ft
New line.res_srv_10579234-S-A bus1=sec_10579234.1 bus2=ld_10579234.1 linecode=1/0_TRIPLEX_1PH phases=1 length=100 units=ft
New line.res_srv_10558581-S-C bus1=sec_10558581.3 bus2=ld_10558581.3 linecode=1/0_TRIPLEX_1PH phases=1 length=100 units=ft
New line.res_srv_10548994-S-C bus1=sec_10548994.3 bus2=ld_10548994.3 linecode=1/0_TRIPLEX_1PH phases=1 length=100 units=ft
New line.res_srv_10545682-S-A bus1=sec_10545682.1 bus2=ld_10545682.1 linecode=1/0_TRIPLEX_1PH phases=1 length=100 units=ft
New line.res_srv_34085321-S-A bus1=sec_34085321.1 bus2=ld_34085321.1 linecode=1/0_TRIPLEX_1PH phases=1 length=100 units=ft
New line.res_srv_10558575-S-C bus1=sec_10558575.3 bus2=ld_10558575.3 linecode=1/0_TRIPLEX_1PH phases=1 length=100 units=ft
New line.res_srv_10549312-S-B bus1=sec_10549312.2 bus2=ld_10549312.2 linecode=1/0_TRIPLEX_1PH phases=1 length=100 units=ft
New line.res_srv_10548986-S-A bus1=sec_10548986.1 bus2=ld_10548986.1 linecode=1/0_TRIPLEX_1PH phases=1 length=100 units=ft
New line.res_srv_10542412-S-A bus1=sec_10542412.1 bus2=ld_10542412.1 linecode=1/0_TRIPLEX_1PH phases=1 length=100 units=ft
New line.res_srv_34085263-S-B bus1=sec_34085263.2 bus2=ld_34085263.2 linecode=1/0_TRIPLEX_1PH phases=1 length=100 units=ft


New line.com_srv_20396677-S-A bus1=sec_20396677.1.2.3 bus2=ld_20396677.1.2.3 linecode=1/0_TRIPLEX_3PH phases=3 length=100 units=ft
New line.res_srv_34085046-S-B bus1=sec_34085046.2 bus2=ld_34085046.2 linecode=1/0_TRIPLEX_1PH phases=1 length=100 units=ft
New line.res_srv_10558562-S-C bus1=sec_10558562.3 bus2=ld_10558562.3 linecode=1/0_TRIPLEX_1PH phases=1 length=100 units=ft
New line.res_srv_10549289-S-C bus1=sec_10549289.3 bus2=ld_10549289.3 linecode=1/0_TRIPLEX_1PH phases=1 length=100 units=ft


New line.com_srv_10548965-S-C bus1=sec_10548965.1.2.3 bus2=ld_10548965.1.2.3 linecode=1/0_TRIPLEX_3PH phases=3 length=100 units=ft
New line.res_srv_10529608-S-A bus1=sec_10529608.1 bus2=ld_10529608.1 linecode=1/0_TRIPLEX_1PH phases=1 length=100 units=ft
New line.res_srv_34097396-S-C bus1=sec_34097396.3 bus2=ld_34097396.3 linecode=1/0_TRIPLEX_1PH phases=1 length=100 units=ft
New line.res_srv_34086401-S-C bus1=sec_34086401.3 bus2=ld_34086401.3 linecode=1/0_TRIPLEX_1PH phases=1 length=100 units=ft
New line.res_srv_34085040-S-A bus1=sec_34085040.1 bus2=ld_34085040.1 linecode=1/0_TRIPLEX_1PH phases=1 length=100 units=ft
New line.res_srv_20344331-S-C bus1=sec_20344331.3 bus2=ld_20344331.3 linecode=1/0_TRIPLEX_1PH phases=1 length=100 units=ft
New line.res_srv_10548956-S-C bus1=sec_10548956.3 bus2=ld_10548956.3 linecode=1/0_TRIPLEX_1PH phases=1 length=100 units=ft
New line.res_srv_10525295-S-C bus1=sec_10525295.3 bus2=ld_10525295.3 linecode=1/0_TRIPLEX_1PH phases=1 length=100 units=ft
New line.res_srv_34086324-S-C bus1=sec_34086324.3 bus2=ld_34086324.3 linecode=1/0_TRIPLEX_1PH phases=1 length=100 units=ft
New line.res_srv_20122385-S-C bus1=sec_20122385.3 bus2=ld_20122385.3 linecode=1/0_TRIPLEX_1PH phases=1 length=100 units=ft
New line.res_srv_10549269-S-C bus1=sec_10549269.3 bus2=ld_10549269.3 linecode=1/0_TRIPLEX_1PH phases=1 length=100 units=ft
New line.res_srv_10548950-S-B bus1=sec_10548950.2 bus2=ld_10548950.2 linecode=1/0_TRIPLEX_1PH phases=1 length=100 units=ft
New line.res_srv_10523032-S-C bus1=sec_10523032.3 bus2=ld_10523032.3 linecode=1/0_TRIPLEX_1PH phases=1 length=100 units=ft
New line.res_srv_34086310-S-A bus1=sec_34086310.1 bus2=ld_34086310.1 linecode=1/0_TRIPLEX_1PH phases=1 length=100 units=ft
New line.res_srv_34084952-S-A bus1=sec_34084952.1 bus2=ld_34084952.1 linecode=1/0_TRIPLEX_1PH phases=1 length=100 units=ft
New line.res_srv_20028685-S-B bus1=sec_20028685.2 bus2=ld_20028685.2 linecode=1/0_TRIPLEX_1PH phases=1 length=100 units=ft
New line.res_srv_10559591-S-B bus1=sec_10559591.2 bus2=ld_10559591.2 linecode=1/0_TRIPLEX_1PH phases=1 length=100 units=ft
New line.res_srv_10549261-S-C bus1=sec_10549261.3 bus2=ld_10549261.3 linecode=1/0_TRIPLEX_1PH phases=1 length=100 units=ft
New line.res_srv_10558523-S-B bus1=sec_10558523.2 bus2=ld_10558523.2 linecode=1/0_TRIPLEX_1PH phases=1 length=100 units=ft
New line.res_srv_10548938-S-C bus1=sec_10548938.3 bus2=ld_10548938.3 linecode=1/0_TRIPLEX_1PH phases=1 length=100 units=ft
New line.res_srv_34095655-S-C bus1=sec_34095655.3 bus2=ld_34095655.3 linecode=1/0_TRIPLEX_1PH phases=1 length=100 units=ft
New line.res_srv_10548931-S-A bus1=sec_10548931.1 bus2=ld_10548931.1 linecode=1/0_TRIPLEX_1PH phases=1 length=100 units=ft
New line.res_srv_34057718-S-A bus1=sec_34057718.1 bus2=ld_34057718.1 linecode=1/0_TRIPLEX_1PH phases=1 length=100 units=ft
New line.res_srv_10559398-S-A bus1=sec_10559398.1 bus2=ld_10559398.1 linecode=1/0_TRIPLEX_1PH phases=1 length=100 units=ft
New line.res_srv_10558509-S-B bus1=sec_10558509.2 bus2=ld_10558509.2 linecode=1/0_TRIPLEX_1PH phases=1 length=100 units=ft
New line.res_srv_10549239-S-B bus1=sec_10549239.2 bus2=ld_10549239.2 linecode=1/0_TRIPLEX_1PH phases=1 length=100 units=ft
New line.res_srv_34095588-S-A bus1=sec_34095588.1 bus2=ld_34095588.1 linecode=1/0_TRIPLEX_1PH phases=1 length=100 units=ft
New line.res_srv_34085953-S-C bus1=sec_34085953.3 bus2=ld_34085953.3 linecode=1/0_TRIPLEX_1PH phases=1 length=100 units=ft
New line.res_srv_10559390-S-A bus1=sec_10559390.1 bus2=ld_10559390.1 linecode=1/0_TRIPLEX_1PH phases=1 length=100 units=ft
New line.res_srv_10549226-S-C bus1=sec_10549226.3 bus2=ld_10549226.3 linecode=1/0_TRIPLEX_1PH phases=1 length=100 units=ft
New line.res_srv_34085490-S-C bus1=sec_34085490.3 bus2=ld_34085490.3 linecode=1/0_TRIPLEX_1PH phases=1 length=100 units=ft
New line.res_srv_34054971-S-C bus1=sec_34054971.3 bus2=ld_34054971.3 linecode=1/0_TRIPLEX_1PH phases=1 length=100 units=ft
New line.res_srv_10579831-S-B bus1=sec_10579831.2 bus2=ld_10579831.2 linecode=1/0_TRIPLEX_1PH phases=1 length=100 units=ft
New line.res_srv_34090753-S-A bus1=sec_34090753.1 bus2=ld_34090753.1 linecode=1/0_TRIPLEX_1PH phases=1 length=100 units=ft
New line.res_srv_34085462-S-B bus1=sec_34085462.2 bus2=ld_34085462.2 linecode=1/0_TRIPLEX_1PH phases=1 length=100 units=ft
New line.res_srv_34054965-S-B bus1=sec_34054965.2 bus2=ld_34054965.2 linecode=1/0_TRIPLEX_1PH phases=1 length=100 units=ft
New line.res_srv_10558646-S-B bus1=sec_10558646.2 bus2=ld_10558646.2 linecode=1/0_TRIPLEX_1PH phases=1 length=100 units=ft
New line.res_srv_10556739-S-A bus1=sec_10556739.1 bus2=ld_10556739.1 linecode=1/0_TRIPLEX_1PH phases=1 length=100 units=ft
New line.res_srv_10549018-S-C bus1=sec_10549018.3 bus2=ld_10549018.3 linecode=1/0_TRIPLEX_1PH phases=1 length=100 units=ft


New line.com_srv_34090004-S-C bus1=sec_34090004.1.2.3 bus2=ld_34090004.1.2.3 linecode=1/0_TRIPLEX_3PH phases=3 length=100 units=ft
New line.res_srv_34085371-S-B bus1=sec_34085371.2 bus2=ld_34085371.2 linecode=1/0_TRIPLEX_1PH phases=1 length=100 units=ft
New line.res_srv_20494026-S-C bus1=sec_20494026.3 bus2=ld_20494026.3 linecode=1/0_TRIPLEX_1PH phases=1 length=100 units=ft
New line.res_srv_10579373-S-A bus1=sec_10579373.1 bus2=ld_10579373.1 linecode=1/0_TRIPLEX_1PH phases=1 length=100 units=ft
New line.res_srv_10558582-S-C bus1=sec_10558582.3 bus2=ld_10558582.3 linecode=1/0_TRIPLEX_1PH phases=1 length=100 units=ft
New line.res_srv_34087254-S-C bus1=sec_34087254.3 bus2=ld_34087254.3 linecode=1/0_TRIPLEX_1PH phases=1 length=100 units=ft
New line.res_srv_34085340-S-C bus1=sec_34085340.3 bus2=ld_34085340.3 linecode=1/0_TRIPLEX_1PH phases=1 length=100 units=ft
New line.res_srv_20416460-S-A bus1=sec_20416460.1 bus2=ld_20416460.1 linecode=1/0_TRIPLEX_1PH phases=1 length=100 units=ft
New line.res_srv_10558576-S-C bus1=sec_10558576.3 bus2=ld_10558576.3 linecode=1/0_TRIPLEX_1PH phases=1 length=100 units=ft
New line.res_srv_10549313-S-B bus1=sec_10549313.2 bus2=ld_10549313.2 linecode=1/0_TRIPLEX_1PH phases=1 length=100 units=ft
New line.res_srv_34086800-S-C bus1=sec_34086800.3 bus2=ld_34086800.3 linecode=1/0_TRIPLEX_1PH phases=1 length=100 units=ft
New line.res_srv_34085264-S-B bus1=sec_34085264.2 bus2=ld_34085264.2 linecode=1/0_TRIPLEX_1PH phases=1 length=100 units=ft
New line.res_srv_10548981-S-A bus1=sec_10548981.1 bus2=ld_10548981.1 linecode=1/0_TRIPLEX_1PH phases=1 length=100 units=ft


New line.com_srv_10540314-S-B bus1=sec_10540314.1.2.3 bus2=ld_10540314.1.2.3 linecode=1/0_TRIPLEX_3PH phases=3 length=100 units=ft
New line.res_srv_34086415-S-C bus1=sec_34086415.3 bus2=ld_34086415.3 linecode=1/0_TRIPLEX_1PH phases=1 length=100 units=ft
New line.res_srv_34085047-S-C bus1=sec_34085047.3 bus2=ld_34085047.3 linecode=1/0_TRIPLEX_1PH phases=1 length=100 units=ft
New line.res_srv_20344372-S-B bus1=sec_20344372.2 bus2=ld_20344372.2 linecode=1/0_TRIPLEX_1PH phases=1 length=100 units=ft
New line.res_srv_10573328-S-C bus1=sec_10573328.3 bus2=ld_10573328.3 linecode=1/0_TRIPLEX_1PH phases=1 length=100 units=ft
New line.res_srv_10549290-S-B bus1=sec_10549290.2 bus2=ld_10549290.2 linecode=1/0_TRIPLEX_1PH phases=1 length=100 units=ft
New line.res_srv_34086402-S-A bus1=sec_34086402.1 bus2=ld_34086402.1 linecode=1/0_TRIPLEX_1PH phases=1 length=100 units=ft
New line.res_srv_34085041-S-A bus1=sec_34085041.1 bus2=ld_34085041.1 linecode=1/0_TRIPLEX_1PH phases=1 length=100 units=ft
New line.res_srv_20344332-S-B bus1=sec_20344332.2 bus2=ld_20344332.2 linecode=1/0_TRIPLEX_1PH phases=1 length=100 units=ft
New line.res_srv_10560616-S-C bus1=sec_10560616.3 bus2=ld_10560616.3 linecode=1/0_TRIPLEX_1PH phases=1 length=100 units=ft
New line.res_srv_10558557-S-C bus1=sec_10558557.3 bus2=ld_10558557.3 linecode=1/0_TRIPLEX_1PH phases=1 length=100 units=ft
New line.res_srv_10526702-S-B bus1=sec_10526702.2 bus2=ld_10526702.2 linecode=1/0_TRIPLEX_1PH phases=1 length=100 units=ft
New line.res_srv_34097297-S-A bus1=sec_34097297.1 bus2=ld_34097297.1 linecode=1/0_TRIPLEX_1PH phases=1 length=100 units=ft
New line.res_srv_34085035-S-A bus1=sec_34085035.1 bus2=ld_34085035.1 linecode=1/0_TRIPLEX_1PH phases=1 length=100 units=ft
New line.res_srv_20251418-S-C bus1=sec_20251418.3 bus2=ld_20251418.3 linecode=1/0_TRIPLEX_1PH phases=1 length=100 units=ft
New line.res_srv_10560281-S-B bus1=sec_10560281.2 bus2=ld_10560281.2 linecode=1/0_TRIPLEX_1PH phases=1 length=100 units=ft
New line.res_srv_10558550-S-A bus1=sec_10558550.1 bus2=ld_10558550.1 linecode=1/0_TRIPLEX_1PH phases=1 length=100 units=ft
New line.res_srv_34096113-S-B bus1=sec_34096113.2 bus2=ld_34096113.2 linecode=1/0_TRIPLEX_1PH phases=1 length=100 units=ft
New line.res_srv_34084953-S-B bus1=sec_34084953.2 bus2=ld_34084953.2 linecode=1/0_TRIPLEX_1PH phases=1 length=100 units=ft
New line.res_srv_10559592-S-B bus1=sec_10559592.2 bus2=ld_10559592.2 linecode=1/0_TRIPLEX_1PH phases=1 length=100 units=ft
New line.res_srv_10558544-S-B bus1=sec_10558544.2 bus2=ld_10558544.2 linecode=1/0_TRIPLEX_1PH phases=1 length=100 units=ft
New line.res_srv_10548945-S-C bus1=sec_10548945.3 bus2=ld_10548945.3 linecode=1/0_TRIPLEX_1PH phases=1 length=100 units=ft
New line.res_srv_34084663-S-B bus1=sec_34084663.2 bus2=ld_34084663.2 linecode=1/0_TRIPLEX_1PH phases=1 length=100 units=ft
New line.res_srv_10585091-S-C bus1=sec_10585091.3 bus2=ld_10585091.3 linecode=1/0_TRIPLEX_1PH phases=1 length=100 units=ft
New line.res_srv_10559574-S-A bus1=sec_10559574.1 bus2=ld_10559574.1 linecode=1/0_TRIPLEX_1PH phases=1 length=100 units=ft
New line.res_srv_10548939-S-C bus1=sec_10548939.3 bus2=ld_10548939.3 linecode=1/0_TRIPLEX_1PH phases=1 length=100 units=ft
New line.res_srv_34095658-S-C bus1=sec_34095658.3 bus2=ld_34095658.3 linecode=1/0_TRIPLEX_1PH phases=1 length=100 units=ft
New line.res_srv_34086299-S-A bus1=sec_34086299.1 bus2=ld_34086299.1 linecode=1/0_TRIPLEX_1PH phases=1 length=100 units=ft
New line.res_srv_10559507-S-A bus1=sec_10559507.1 bus2=ld_10559507.1 linecode=1/0_TRIPLEX_1PH phases=1 length=100 units=ft
New line.res_srv_34057775-S-A bus1=sec_34057775.1 bus2=ld_34057775.1 linecode=1/0_TRIPLEX_1PH phases=1 length=100 units=ft
New line.res_srv_34054978-S-A bus1=sec_34054978.1 bus2=ld_34054978.1 linecode=1/0_TRIPLEX_1PH phases=1 length=100 units=ft
New line.res_srv_10579843-S-C bus1=sec_10579843.3 bus2=ld_10579843.3 linecode=1/0_TRIPLEX_1PH phases=1 length=100 units=ft
